MODEL 1
REMARK VINA RESULT:      -8.0      0.000      0.000
REMARK  17 active torsions:
REMARK  status: ('A' for Active; 'I' for Inactive)
REMARK    1  A    between atoms: P1_1  and  O4_5 
REMARK    2  A    between atoms: P1_1  and  O5_6 
REMARK    3  A    between atoms: P1_1  and  N3_12 
REMARK    4  A    between atoms: O2_3  and  C2_17 
REMARK    5  A    between atoms: O3_4  and  C3_18 
REMARK    6  A    between atoms: O4_5  and  C6_21 
REMARK    7  A    between atoms: O5_6  and  C20_35 
REMARK    8  A    between atoms: O7_8  and  C15_30 
REMARK    9  A    between atoms: O7_8  and  C18_33 
REMARK   10  A    between atoms: N3_12  and  C12_27 
REMARK   11  A    between atoms: N6_15  and  C11_26 
REMARK   12  A    between atoms: C1_16  and  C5_20 
REMARK   13  A    between atoms: C4_19  and  C6_21 
REMARK   14  A    between atoms: C12_27  and  C18_33 
REMARK   15  A    between atoms: C14_29  and  C15_30 
REMARK   16  A    between atoms: C14_29  and  C16_31 
REMARK   17  A    between atoms: C14_29  and  C17_32 
ROOT
ATOM      1  O1  UNK A   1      -8.996  19.197  68.756  1.00  0.00    -0.347 OA
ATOM      2  N4  UNK A   1      -6.941  21.285  67.162  1.00  0.00    -0.193 NA
ATOM      3  C1  UNK A   1      -7.783  18.939  68.002  1.00  0.00     0.222 C 
ATOM      4  C2  UNK A   1      -8.270  18.015  66.843  1.00  0.00     0.205 C 
ATOM      5  C3  UNK A   1      -9.781  18.285  66.734  1.00  0.00     0.182 C 
ATOM      6  C4  UNK A   1     -10.167  18.554  68.198  1.00  0.00     0.180 C 
ATOM      7  C7  UNK A   1      -7.298  20.248  67.522  1.00  0.00     0.107 C 
ENDROOT
BRANCH   3   8
ATOM      8  C5  UNK A   1      -6.751  18.268  68.893  1.00  0.00     0.088 A 
ATOM      9  N1  UNK A   1      -6.548  16.953  69.242  1.00  0.00    -0.229 N 
ATOM     10  N2  UNK A   1      -7.273  15.887  68.782  1.00  0.00    -0.160 NA
ATOM     11  C9  UNK A   1      -5.550  16.865  70.181  1.00  0.00     0.104 A 
ATOM     12  C13 UNK A   1      -6.838  14.738  69.335  1.00  0.00     0.258 A 
ATOM     13  N5  UNK A   1      -5.833  14.632  70.212  1.00  0.00    -0.221 NA
ATOM     14  C11 UNK A   1      -5.161  15.665  70.694  1.00  0.00     0.151 A 
ATOM     15  C10 UNK A   1      -5.085  18.108  70.478  1.00  0.00     0.038 A 
ATOM     16  C8  UNK A   1      -5.816  19.012  69.707  1.00  0.00     0.034 A 
BRANCH  14  17
ATOM     17  N6  UNK A   1      -4.172  15.471  71.628  1.00  0.00    -0.382 N 
ATOM     18  H20 UNK A   1      -3.510  16.211  71.818  1.00  0.00     0.157 HD
ATOM     19  H21 UNK A   1      -4.232  14.677  72.253  1.00  0.00     0.157 HD
ENDBRANCH  14  17
ENDBRANCH   3   8
BRANCH   4  20
ATOM     20  O2  UNK A   1      -7.578  18.177  65.594  1.00  0.00    -0.388 OA
ATOM     21  H6  UNK A   1      -8.206  18.568  64.962  1.00  0.00     0.210 HD
ENDBRANCH   4  20
BRANCH   6  22
ATOM     22  C6  UNK A   1     -10.440  17.239  68.971  1.00  0.00     0.214 C 
BRANCH  22  23
ATOM     23  O4  UNK A   1     -11.170  16.341  68.121  1.00  0.00    -0.295 OA
BRANCH  23  24
ATOM     24  P1  UNK A   1     -11.436  14.791  68.513  1.00  0.00     0.436 P 
ATOM     25  O6  UNK A   1     -10.205  14.014  68.805  1.00  0.00    -0.234 OA
BRANCH  24  26
ATOM     26  O5  UNK A   1     -12.381  14.299  67.294  1.00  0.00    -0.256 OA
BRANCH  26  27
ATOM     27  C20 UNK A   1     -12.004  13.550  66.198  1.00  0.00     0.080 A 
ATOM     28  C23 UNK A   1     -11.356  12.300  66.307  1.00  0.00     0.037 A 
ATOM     29  C25 UNK A   1     -11.047  11.563  65.150  1.00  0.00     0.003 A 
ATOM     30  C27 UNK A   1     -11.393  12.061  63.883  1.00  0.00     0.000 A 
ATOM     31  C26 UNK A   1     -12.039  13.302  63.772  1.00  0.00     0.003 A 
ATOM     32  C24 UNK A   1     -12.337  14.045  64.926  1.00  0.00     0.037 A 
ENDBRANCH  26  27
ENDBRANCH  24  26
BRANCH  24  33
ATOM     33  N3  UNK A   1     -12.556  14.840  69.750  1.00  0.00    -0.314 N 
ATOM     34  H10 UNK A   1     -13.156  15.662  69.762  1.00  0.00     0.166 HD
BRANCH  33  35
ATOM     35  C12 UNK A   1     -12.258  14.408  71.127  1.00  0.00     0.183 C 
ATOM     36  C19 UNK A   1     -11.937  15.615  72.035  1.00  0.00     0.043 C 
BRANCH  35  37
ATOM     37  C18 UNK A   1     -13.427  13.591  71.702  1.00  0.00     0.281 C 
ATOM     38  O8  UNK A   1     -14.486  14.076  72.070  1.00  0.00    -0.263 OA
BRANCH  37  39
ATOM     39  O7  UNK A   1     -13.121  12.261  71.784  1.00  0.00    -0.319 OA
BRANCH  39  40
ATOM     40  C15 UNK A   1     -12.338  11.655  70.735  1.00  0.00     0.183 C 
BRANCH  40  41
ATOM     41  C14 UNK A   1     -12.507  10.113  70.775  1.00  0.00     0.009 C 
BRANCH  41  42
ATOM     42  C16 UNK A   1     -13.333   9.637  72.006  1.00  0.00     0.002 C 
ATOM     43  C21 UNK A   1     -14.213   8.392  71.759  1.00  0.00     0.005 C 
ENDBRANCH  41  42
BRANCH  41  44
ATOM     44  C17 UNK A   1     -11.116   9.427  70.653  1.00  0.00     0.002 C 
ATOM     45  C22 UNK A   1     -10.614   8.742  71.945  1.00  0.00     0.005 C 
ENDBRANCH  41  44
ENDBRANCH  40  41
ENDBRANCH  39  40
ENDBRANCH  37  39
ENDBRANCH  35  37
ENDBRANCH  33  35
ENDBRANCH  24  33
ENDBRANCH  23  24
ENDBRANCH  22  23
ENDBRANCH   6  22
BRANCH   5  46
ATOM     46  O3  UNK A   1     -10.066  19.435  65.930  1.00  0.00    -0.390 OA
ATOM     47  H8  UNK A   1      -9.510  20.172  66.241  1.00  0.00     0.210 HD
ENDBRANCH   5  46
TORSDOF 17
ENDMDL
MODEL 2
REMARK VINA RESULT:      -7.5      1.287      2.762
REMARK  17 active torsions:
REMARK  status: ('A' for Active; 'I' for Inactive)
REMARK    1  A    between atoms: P1_1  and  O4_5 
REMARK    2  A    between atoms: P1_1  and  O5_6 
REMARK    3  A    between atoms: P1_1  and  N3_12 
REMARK    4  A    between atoms: O2_3  and  C2_17 
REMARK    5  A    between atoms: O3_4  and  C3_18 
REMARK    6  A    between atoms: O4_5  and  C6_21 
REMARK    7  A    between atoms: O5_6  and  C20_35 
REMARK    8  A    between atoms: O7_8  and  C15_30 
REMARK    9  A    between atoms: O7_8  and  C18_33 
REMARK   10  A    between atoms: N3_12  and  C12_27 
REMARK   11  A    between atoms: N6_15  and  C11_26 
REMARK   12  A    between atoms: C1_16  and  C5_20 
REMARK   13  A    between atoms: C4_19  and  C6_21 
REMARK   14  A    between atoms: C12_27  and  C18_33 
REMARK   15  A    between atoms: C14_29  and  C15_30 
REMARK   16  A    between atoms: C14_29  and  C16_31 
REMARK   17  A    between atoms: C14_29  and  C17_32 
ROOT
ATOM      1  O1  UNK A   1      -9.206  18.423  68.740  1.00  0.00    -0.347 OA
ATOM      2  N4  UNK A   1      -7.422  20.737  67.131  1.00  0.00    -0.193 NA
ATOM      3  C1  UNK A   1      -7.963  18.314  68.000  1.00  0.00     0.222 C 
ATOM      4  C2  UNK A   1      -8.315  17.318  66.851  1.00  0.00     0.205 C 
ATOM      5  C3  UNK A   1      -9.848  17.390  66.727  1.00  0.00     0.182 C 
ATOM      6  C4  UNK A   1     -10.279  17.627  68.183  1.00  0.00     0.180 C 
ATOM      7  C7  UNK A   1      -7.646  19.667  67.504  1.00  0.00     0.107 C 
ENDROOT
BRANCH   3   8
ATOM      8  C5  UNK A   1      -6.862  17.794  68.909  1.00  0.00     0.088 A 
ATOM      9  N1  UNK A   1      -6.491  16.521  69.275  1.00  0.00    -0.229 N 
ATOM     10  N2  UNK A   1      -7.063  15.364  68.820  1.00  0.00    -0.160 NA
ATOM     11  C9  UNK A   1      -5.502  16.575  70.226  1.00  0.00     0.104 A 
ATOM     12  C13 UNK A   1      -6.486  14.288  69.390  1.00  0.00     0.258 A 
ATOM     13  N5  UNK A   1      -5.487  14.325  70.280  1.00  0.00    -0.221 NA
ATOM     14  C11 UNK A   1      -4.963  15.442  70.756  1.00  0.00     0.151 A 
ATOM     15  C10 UNK A   1      -5.209  17.871  70.514  1.00  0.00     0.038 A 
ATOM     16  C8  UNK A   1      -6.044  18.663  69.725  1.00  0.00     0.034 A 
BRANCH  14  17
ATOM     17  N6  UNK A   1      -3.969  15.390  71.704  1.00  0.00    -0.382 N 
ATOM     18  H20 UNK A   1      -3.954  16.070  72.451  1.00  0.00     0.157 HD
ATOM     19  H21 UNK A   1      -3.383  14.567  71.759  1.00  0.00     0.157 HD
ENDBRANCH  14  17
ENDBRANCH   3   8
BRANCH   4  20
ATOM     20  O2  UNK A   1      -7.637  17.550  65.606  1.00  0.00    -0.388 OA
ATOM     21  H6  UNK A   1      -7.584  18.514  65.479  1.00  0.00     0.210 HD
ENDBRANCH   4  20
BRANCH   6  22
ATOM     22  C6  UNK A   1     -10.388  16.299  68.974  1.00  0.00     0.214 C 
BRANCH  22  23
ATOM     23  O4  UNK A   1     -11.210  15.382  68.235  1.00  0.00    -0.295 OA
BRANCH  23  24
ATOM     24  P1  UNK A   1     -10.821  13.821  68.046  1.00  0.00     0.436 P 
ATOM     25  O6  UNK A   1      -9.403  13.584  67.675  1.00  0.00    -0.234 OA
BRANCH  24  26
ATOM     26  O5  UNK A   1     -11.973  13.314  67.028  1.00  0.00    -0.256 OA
BRANCH  26  27
ATOM     27  C20 UNK A   1     -11.794  12.752  65.780  1.00  0.00     0.080 A 
ATOM     28  C23 UNK A   1     -12.354  13.297  64.603  1.00  0.00     0.037 A 
ATOM     29  C25 UNK A   1     -12.089  12.704  63.357  1.00  0.00     0.003 A 
ATOM     30  C27 UNK A   1     -11.256  11.576  63.275  1.00  0.00     0.000 A 
ATOM     31  C26 UNK A   1     -10.695  11.034  64.442  1.00  0.00     0.003 A 
ATOM     32  C24 UNK A   1     -10.970  11.618  65.690  1.00  0.00     0.037 A 
ENDBRANCH  26  27
ENDBRANCH  24  26
BRANCH  24  33
ATOM     33  N3  UNK A   1     -11.323  13.072  69.451  1.00  0.00    -0.314 N 
ATOM     34  H10 UNK A   1     -10.758  13.267  70.275  1.00  0.00     0.166 HD
BRANCH  33  35
ATOM     35  C12 UNK A   1     -11.822  11.686  69.493  1.00  0.00     0.183 C 
ATOM     36  C19 UNK A   1     -10.694  10.677  69.185  1.00  0.00     0.043 C 
BRANCH  35  37
ATOM     37  C18 UNK A   1     -12.464  11.384  70.858  1.00  0.00     0.281 C 
ATOM     38  O8  UNK A   1     -12.902  10.290  71.181  1.00  0.00    -0.263 OA
BRANCH  37  39
ATOM     39  O7  UNK A   1     -12.515  12.497  71.649  1.00  0.00    -0.319 OA
BRANCH  39  40
ATOM     40  C15 UNK A   1     -13.761  12.853  72.282  1.00  0.00     0.183 C 
BRANCH  40  41
ATOM     41  C14 UNK A   1     -13.803  14.383  72.538  1.00  0.00     0.009 C 
BRANCH  41  42
ATOM     42  C16 UNK A   1     -14.358  15.176  71.318  1.00  0.00     0.002 C 
ATOM     43  C21 UNK A   1     -15.898  15.191  71.196  1.00  0.00     0.005 C 
ENDBRANCH  41  42
BRANCH  41  44
ATOM     44  C17 UNK A   1     -12.408  14.874  73.021  1.00  0.00     0.002 C 
ATOM     45  C22 UNK A   1     -11.938  16.209  72.398  1.00  0.00     0.005 C 
ENDBRANCH  41  44
ENDBRANCH  40  41
ENDBRANCH  39  40
ENDBRANCH  37  39
ENDBRANCH  35  37
ENDBRANCH  33  35
ENDBRANCH  24  33
ENDBRANCH  23  24
ENDBRANCH  22  23
ENDBRANCH   6  22
BRANCH   5  46
ATOM     46  O3  UNK A   1     -10.270  18.482  65.903  1.00  0.00    -0.390 OA
ATOM     47  H8  UNK A   1      -9.479  18.964  65.604  1.00  0.00     0.210 HD
ENDBRANCH   5  46
TORSDOF 17
ENDMDL
MODEL 3
REMARK VINA RESULT:      -7.4     26.336     30.418
REMARK  17 active torsions:
REMARK  status: ('A' for Active; 'I' for Inactive)
REMARK    1  A    between atoms: P1_1  and  O4_5 
REMARK    2  A    between atoms: P1_1  and  O5_6 
REMARK    3  A    between atoms: P1_1  and  N3_12 
REMARK    4  A    between atoms: O2_3  and  C2_17 
REMARK    5  A    between atoms: O3_4  and  C3_18 
REMARK    6  A    between atoms: O4_5  and  C6_21 
REMARK    7  A    between atoms: O5_6  and  C20_35 
REMARK    8  A    between atoms: O7_8  and  C15_30 
REMARK    9  A    between atoms: O7_8  and  C18_33 
REMARK   10  A    between atoms: N3_12  and  C12_27 
REMARK   11  A    between atoms: N6_15  and  C11_26 
REMARK   12  A    between atoms: C1_16  and  C5_20 
REMARK   13  A    between atoms: C4_19  and  C6_21 
REMARK   14  A    between atoms: C12_27  and  C18_33 
REMARK   15  A    between atoms: C14_29  and  C15_30 
REMARK   16  A    between atoms: C14_29  and  C16_31 
REMARK   17  A    between atoms: C14_29  and  C17_32 
ROOT
ATOM      1  O1  UNK A   1     -26.891  -2.984  56.872  1.00  0.00    -0.347 OA
ATOM      2  N4  UNK A   1     -25.089  -0.978  58.836  1.00  0.00    -0.193 NA
ATOM      3  C1  UNK A   1     -25.478  -3.003  57.203  1.00  0.00     0.222 C 
ATOM      4  C2  UNK A   1     -24.783  -2.813  55.819  1.00  0.00     0.205 C 
ATOM      5  C3  UNK A   1     -25.854  -2.160  54.928  1.00  0.00     0.182 C 
ATOM      6  C4  UNK A   1     -27.149  -2.797  55.460  1.00  0.00     0.180 C 
ATOM      7  C7  UNK A   1     -25.243  -1.871  58.119  1.00  0.00     0.107 C 
ENDROOT
BRANCH   3   8
ATOM      8  C5  UNK A   1     -25.118  -4.324  57.864  1.00  0.00     0.088 A 
ATOM      9  N1  UNK A   1     -25.749  -5.077  58.826  1.00  0.00    -0.229 N 
ATOM     10  N2  UNK A   1     -26.955  -4.784  59.400  1.00  0.00    -0.160 NA
ATOM     11  C9  UNK A   1     -24.957  -6.140  59.184  1.00  0.00     0.104 A 
ATOM     12  C13 UNK A   1     -27.283  -5.709  60.324  1.00  0.00     0.258 A 
ATOM     13  N5  UNK A   1     -26.544  -6.777  60.647  1.00  0.00    -0.221 NA
ATOM     14  C11 UNK A   1     -25.357  -7.039  60.126  1.00  0.00     0.151 A 
ATOM     15  C10 UNK A   1     -23.793  -6.105  58.482  1.00  0.00     0.038 A 
ATOM     16  C8  UNK A   1     -23.847  -4.981  57.658  1.00  0.00     0.034 A 
BRANCH  14  17
ATOM     17  N6  UNK A   1     -24.643  -8.135  60.548  1.00  0.00    -0.382 N 
ATOM     18  H20 UNK A   1     -24.891  -9.054  60.209  1.00  0.00     0.157 HD
ATOM     19  H21 UNK A   1     -23.765  -7.996  61.031  1.00  0.00     0.157 HD
ENDBRANCH  14  17
ENDBRANCH   3   8
BRANCH   4  20
ATOM     20  O2  UNK A   1     -23.548  -2.079  55.846  1.00  0.00    -0.388 OA
ATOM     21  H6  UNK A   1     -22.962  -2.472  55.176  1.00  0.00     0.210 HD
ENDBRANCH   4  20
BRANCH   6  22
ATOM     22  C6  UNK A   1     -27.422  -4.175  54.807  1.00  0.00     0.214 C 
BRANCH  22  23
ATOM     23  O4  UNK A   1     -27.767  -5.118  55.834  1.00  0.00    -0.295 OA
BRANCH  23  24
ATOM     24  P1  UNK A   1     -27.287  -6.665  55.792  1.00  0.00     0.436 P 
ATOM     25  O6  UNK A   1     -25.847  -6.852  55.483  1.00  0.00    -0.234 OA
BRANCH  24  26
ATOM     26  O5  UNK A   1     -28.377  -7.322  54.790  1.00  0.00    -0.256 OA
BRANCH  26  27
ATOM     27  C20 UNK A   1     -28.131  -7.932  53.577  1.00  0.00     0.080 A 
ATOM     28  C23 UNK A   1     -27.217  -7.421  52.630  1.00  0.00     0.037 A 
ATOM     29  C25 UNK A   1     -26.975  -8.121  51.435  1.00  0.00     0.003 A 
ATOM     30  C27 UNK A   1     -27.631  -9.338  51.185  1.00  0.00     0.000 A 
ATOM     31  C26 UNK A   1     -28.537  -9.850  52.126  1.00  0.00     0.003 A 
ATOM     32  C24 UNK A   1     -28.790  -9.145  53.314  1.00  0.00     0.037 A 
ENDBRANCH  26  27
ENDBRANCH  24  26
BRANCH  24  33
ATOM     33  N3  UNK A   1     -27.794  -7.319  57.243  1.00  0.00    -0.314 N 
ATOM     34  H10 UNK A   1     -27.520  -6.799  58.074  1.00  0.00     0.166 HD
BRANCH  33  35
ATOM     35  C12 UNK A   1     -27.787  -8.766  57.522  1.00  0.00     0.183 C 
ATOM     36  C19 UNK A   1     -28.984  -9.470  56.847  1.00  0.00     0.043 C 
BRANCH  35  37
ATOM     37  C18 UNK A   1     -26.459  -9.397  57.071  1.00  0.00     0.281 C 
ATOM     38  O8  UNK A   1     -25.389  -9.213  57.630  1.00  0.00    -0.263 OA
BRANCH  37  39
ATOM     39  O7  UNK A   1     -26.620 -10.160  55.948  1.00  0.00    -0.319 OA
BRANCH  39  40
ATOM     40  C15 UNK A   1     -25.576 -10.172  54.952  1.00  0.00     0.183 C 
BRANCH  40  41
ATOM     41  C14 UNK A   1     -25.829 -11.320  53.939  1.00  0.00     0.009 C 
BRANCH  41  42
ATOM     42  C16 UNK A   1     -26.476 -12.570  54.605  1.00  0.00     0.002 C 
ATOM     43  C21 UNK A   1     -27.741 -13.104  53.898  1.00  0.00     0.005 C 
ENDBRANCH  41  42
BRANCH  41  44
ATOM     44  C17 UNK A   1     -24.517 -11.634  53.162  1.00  0.00     0.002 C 
ATOM     45  C22 UNK A   1     -24.147 -10.604  52.070  1.00  0.00     0.005 C 
ENDBRANCH  41  44
ENDBRANCH  40  41
ENDBRANCH  39  40
ENDBRANCH  37  39
ENDBRANCH  35  37
ENDBRANCH  33  35
ENDBRANCH  24  33
ENDBRANCH  23  24
ENDBRANCH  22  23
ENDBRANCH   6  22
BRANCH   5  46
ATOM     46  O3  UNK A   1     -25.899  -0.739  55.095  1.00  0.00    -0.390 OA
ATOM     47  H8  UNK A   1     -26.828  -0.453  55.044  1.00  0.00     0.210 HD
ENDBRANCH   5  46
TORSDOF 17
ENDMDL
MODEL 4
REMARK VINA RESULT:      -7.3      2.144      4.176
REMARK  17 active torsions:
REMARK  status: ('A' for Active; 'I' for Inactive)
REMARK    1  A    between atoms: P1_1  and  O4_5 
REMARK    2  A    between atoms: P1_1  and  O5_6 
REMARK    3  A    between atoms: P1_1  and  N3_12 
REMARK    4  A    between atoms: O2_3  and  C2_17 
REMARK    5  A    between atoms: O3_4  and  C3_18 
REMARK    6  A    between atoms: O4_5  and  C6_21 
REMARK    7  A    between atoms: O5_6  and  C20_35 
REMARK    8  A    between atoms: O7_8  and  C15_30 
REMARK    9  A    between atoms: O7_8  and  C18_33 
REMARK   10  A    between atoms: N3_12  and  C12_27 
REMARK   11  A    between atoms: N6_15  and  C11_26 
REMARK   12  A    between atoms: C1_16  and  C5_20 
REMARK   13  A    between atoms: C4_19  and  C6_21 
REMARK   14  A    between atoms: C12_27  and  C18_33 
REMARK   15  A    between atoms: C14_29  and  C15_30 
REMARK   16  A    between atoms: C14_29  and  C16_31 
REMARK   17  A    between atoms: C14_29  and  C17_32 
ROOT
ATOM      1  O1  UNK A   1      -9.655  16.269  68.178  1.00  0.00    -0.347 OA
ATOM      2  N4  UNK A   1      -9.089  19.551  68.363  1.00  0.00    -0.193 NA
ATOM      3  C1  UNK A   1      -8.469  17.045  67.863  1.00  0.00     0.222 C 
ATOM      4  C2  UNK A   1      -8.248  16.762  66.345  1.00  0.00     0.205 C 
ATOM      5  C3  UNK A   1      -9.624  16.306  65.826  1.00  0.00     0.182 C 
ATOM      6  C4  UNK A   1     -10.194  15.555  67.040  1.00  0.00     0.180 C 
ATOM      7  C7  UNK A   1      -8.802  18.456  68.138  1.00  0.00     0.107 C 
ENDROOT
BRANCH   3   8
ATOM      8  C5  UNK A   1      -7.304  16.581  68.721  1.00  0.00     0.088 A 
ATOM      9  N1  UNK A   1      -6.004  17.019  68.827  1.00  0.00    -0.229 N 
ATOM     10  N2  UNK A   1      -5.464  18.079  68.152  1.00  0.00    -0.160 NA
ATOM     11  C9  UNK A   1      -5.296  16.189  69.662  1.00  0.00     0.104 A 
ATOM     12  C13 UNK A   1      -4.161  18.230  68.460  1.00  0.00     0.258 A 
ATOM     13  N5  UNK A   1      -3.472  17.460  69.310  1.00  0.00    -0.221 NA
ATOM     14  C11 UNK A   1      -3.978  16.407  69.929  1.00  0.00     0.151 A 
ATOM     15  C10 UNK A   1      -6.101  15.190  70.111  1.00  0.00     0.038 A 
ATOM     16  C8  UNK A   1      -7.357  15.390  69.538  1.00  0.00     0.034 A 
BRANCH  14  17
ATOM     17  N6  UNK A   1      -3.187  15.642  70.752  1.00  0.00    -0.382 N 
ATOM     18  H20 UNK A   1      -2.334  16.031  71.130  1.00  0.00     0.157 HD
ATOM     19  H21 UNK A   1      -3.556  14.778  71.129  1.00  0.00     0.157 HD
ENDBRANCH  14  17
ENDBRANCH   3   8
BRANCH   4  20
ATOM     20  O2  UNK A   1      -7.694  17.852  65.590  1.00  0.00    -0.388 OA
ATOM     21  H6  UNK A   1      -6.873  18.125  66.035  1.00  0.00     0.210 HD
ENDBRANCH   4  20
BRANCH   6  22
ATOM     22  C6  UNK A   1      -9.706  14.085  67.087  1.00  0.00     0.214 C 
BRANCH  22  23
ATOM     23  O4  UNK A   1     -10.095  13.503  68.341  1.00  0.00    -0.295 OA
BRANCH  23  24
ATOM     24  P1  UNK A   1     -11.528  12.779  68.558  1.00  0.00     0.436 P 
ATOM     25  O6  UNK A   1     -12.030  12.047  67.369  1.00  0.00    -0.234 OA
BRANCH  24  26
ATOM     26  O5  UNK A   1     -12.426  13.992  69.146  1.00  0.00    -0.256 OA
BRANCH  26  27
ATOM     27  C20 UNK A   1     -12.491  14.422  70.455  1.00  0.00     0.080 A 
ATOM     28  C23 UNK A   1     -11.618  15.396  70.990  1.00  0.00     0.037 A 
ATOM     29  C25 UNK A   1     -11.773  15.827  72.319  1.00  0.00     0.003 A 
ATOM     30  C27 UNK A   1     -12.804  15.302  73.115  1.00  0.00     0.000 A 
ATOM     31  C26 UNK A   1     -13.675  14.338  72.586  1.00  0.00     0.003 A 
ATOM     32  C24 UNK A   1     -13.513  13.896  71.262  1.00  0.00     0.037 A 
ENDBRANCH  26  27
ENDBRANCH  24  26
BRANCH  24  33
ATOM     33  N3  UNK A   1     -11.347  11.856  69.938  1.00  0.00    -0.314 N 
ATOM     34  H10 UNK A   1     -10.643  12.187  70.593  1.00  0.00     0.166 HD
BRANCH  33  35
ATOM     35  C12 UNK A   1     -11.387  10.383  69.934  1.00  0.00     0.183 C 
ATOM     36  C19 UNK A   1      -9.966   9.785  70.034  1.00  0.00     0.043 C 
BRANCH  35  37
ATOM     37  C18 UNK A   1     -12.277   9.863  71.075  1.00  0.00     0.281 C 
ATOM     38  O8  UNK A   1     -12.858  10.584  71.873  1.00  0.00    -0.263 OA
BRANCH  37  39
ATOM     39  O7  UNK A   1     -12.309   8.497  71.108  1.00  0.00    -0.319 OA
BRANCH  39  40
ATOM     40  C15 UNK A   1     -11.951   7.815  72.328  1.00  0.00     0.183 C 
BRANCH  40  41
ATOM     41  C14 UNK A   1     -11.615   6.332  72.022  1.00  0.00     0.009 C 
BRANCH  41  42
ATOM     42  C16 UNK A   1     -10.436   5.797  72.888  1.00  0.00     0.002 C 
ATOM     43  C21 UNK A   1     -10.131   6.624  74.156  1.00  0.00     0.005 C 
ENDBRANCH  41  42
BRANCH  41  44
ATOM     44  C17 UNK A   1     -11.402   6.145  70.492  1.00  0.00     0.002 C 
ATOM     45  C22 UNK A   1      -9.975   5.714  70.083  1.00  0.00     0.005 C 
ENDBRANCH  41  44
ENDBRANCH  40  41
ENDBRANCH  39  40
ENDBRANCH  37  39
ENDBRANCH  35  37
ENDBRANCH  33  35
ENDBRANCH  24  33
ENDBRANCH  23  24
ENDBRANCH  22  23
ENDBRANCH   6  22
BRANCH   5  46
ATOM     46  O3  UNK A   1     -10.466  17.415  65.492  1.00  0.00    -0.390 OA
ATOM     47  H8  UNK A   1     -10.360  17.605  64.543  1.00  0.00     0.210 HD
ENDBRANCH   5  46
TORSDOF 17
ENDMDL
MODEL 5
REMARK VINA RESULT:      -7.2     25.332     29.576
REMARK  17 active torsions:
REMARK  status: ('A' for Active; 'I' for Inactive)
REMARK    1  A    between atoms: P1_1  and  O4_5 
REMARK    2  A    between atoms: P1_1  and  O5_6 
REMARK    3  A    between atoms: P1_1  and  N3_12 
REMARK    4  A    between atoms: O2_3  and  C2_17 
REMARK    5  A    between atoms: O3_4  and  C3_18 
REMARK    6  A    between atoms: O4_5  and  C6_21 
REMARK    7  A    between atoms: O5_6  and  C20_35 
REMARK    8  A    between atoms: O7_8  and  C15_30 
REMARK    9  A    between atoms: O7_8  and  C18_33 
REMARK   10  A    between atoms: N3_12  and  C12_27 
REMARK   11  A    between atoms: N6_15  and  C11_26 
REMARK   12  A    between atoms: C1_16  and  C5_20 
REMARK   13  A    between atoms: C4_19  and  C6_21 
REMARK   14  A    between atoms: C12_27  and  C18_33 
REMARK   15  A    between atoms: C14_29  and  C15_30 
REMARK   16  A    between atoms: C14_29  and  C16_31 
REMARK   17  A    between atoms: C14_29  and  C17_32 
ROOT
ATOM      1  O1  UNK A   1     -26.761  -1.784  56.328  1.00  0.00    -0.347 OA
ATOM      2  N4  UNK A   1     -24.700   0.813  56.698  1.00  0.00    -0.193 NA
ATOM      3  C1  UNK A   1     -25.420  -1.710  56.879  1.00  0.00     0.222 C 
ATOM      4  C2  UNK A   1     -24.596  -2.648  55.944  1.00  0.00     0.205 C 
ATOM      5  C3  UNK A   1     -25.415  -2.725  54.643  1.00  0.00     0.182 C 
ATOM      6  C4  UNK A   1     -26.859  -2.642  55.166  1.00  0.00     0.180 C 
ATOM      7  C7  UNK A   1     -25.001  -0.299  56.783  1.00  0.00     0.107 C 
ENDROOT
BRANCH   3   8
ATOM      8  C5  UNK A   1     -25.427  -2.181  58.324  1.00  0.00     0.088 A 
ATOM      9  N1  UNK A   1     -24.413  -2.508  59.193  1.00  0.00    -0.229 N 
ATOM     10  N2  UNK A   1     -23.074  -2.426  58.920  1.00  0.00    -0.160 NA
ATOM     11  C9  UNK A   1     -24.937  -3.000  60.363  1.00  0.00     0.104 A 
ATOM     12  C13 UNK A   1     -22.344  -2.842  59.974  1.00  0.00     0.258 A 
ATOM     13  N5  UNK A   1     -22.842  -3.276  61.138  1.00  0.00    -0.221 NA
ATOM     14  C11 UNK A   1     -24.134  -3.399  61.389  1.00  0.00     0.151 A 
ATOM     15  C10 UNK A   1     -26.294  -3.019  60.288  1.00  0.00     0.038 A 
ATOM     16  C8  UNK A   1     -26.640  -2.530  59.029  1.00  0.00     0.034 A 
BRANCH  14  17
ATOM     17  N6  UNK A   1     -24.560  -3.897  62.597  1.00  0.00    -0.382 N 
ATOM     18  H20 UNK A   1     -24.900  -3.264  63.307  1.00  0.00     0.157 HD
ATOM     19  H21 UNK A   1     -24.714  -4.893  62.693  1.00  0.00     0.157 HD
ENDBRANCH  14  17
ENDBRANCH   3   8
BRANCH   4  20
ATOM     20  O2  UNK A   1     -23.231  -2.257  55.727  1.00  0.00    -0.388 OA
ATOM     21  H6  UNK A   1     -23.050  -2.348  54.776  1.00  0.00     0.210 HD
ENDBRANCH   4  20
BRANCH   6  22
ATOM     22  C6  UNK A   1     -27.392  -4.030  55.605  1.00  0.00     0.214 C 
BRANCH  22  23
ATOM     23  O4  UNK A   1     -27.318  -4.931  54.489  1.00  0.00    -0.295 OA
BRANCH  23  24
ATOM     24  P1  UNK A   1     -27.564  -6.526  54.640  1.00  0.00     0.436 P 
ATOM     25  O6  UNK A   1     -28.435  -7.112  53.590  1.00  0.00    -0.234 OA
BRANCH  24  26
ATOM     26  O5  UNK A   1     -28.040  -6.642  56.183  1.00  0.00    -0.256 OA
BRANCH  26  27
ATOM     27  C20 UNK A   1     -27.859  -7.715  57.032  1.00  0.00     0.080 A 
ATOM     28  C23 UNK A   1     -27.168  -7.616  58.260  1.00  0.00     0.037 A 
ATOM     29  C25 UNK A   1     -27.065  -8.736  59.103  1.00  0.00     0.003 A 
ATOM     30  C27 UNK A   1     -27.660  -9.953  58.734  1.00  0.00     0.000 A 
ATOM     31  C26 UNK A   1     -28.350 -10.054  57.517  1.00  0.00     0.003 A 
ATOM     32  C24 UNK A   1     -28.443  -8.939  56.667  1.00  0.00     0.037 A 
ENDBRANCH  26  27
ENDBRANCH  24  26
BRANCH  24  33
ATOM     33  N3  UNK A   1     -26.038  -7.194  54.754  1.00  0.00    -0.314 N 
ATOM     34  H10 UNK A   1     -25.659  -7.256  55.696  1.00  0.00     0.166 HD
BRANCH  33  35
ATOM     35  C12 UNK A   1     -24.961  -6.914  53.789  1.00  0.00     0.183 C 
ATOM     36  C19 UNK A   1     -23.877  -6.006  54.410  1.00  0.00     0.043 C 
BRANCH  35  37
ATOM     37  C18 UNK A   1     -24.341  -8.225  53.274  1.00  0.00     0.281 C 
ATOM     38  O8  UNK A   1     -23.144  -8.396  53.105  1.00  0.00    -0.263 OA
BRANCH  37  39
ATOM     39  O7  UNK A   1     -25.299  -9.161  52.997  1.00  0.00    -0.319 OA
BRANCH  39  40
ATOM     40  C15 UNK A   1     -25.691  -9.380  51.626  1.00  0.00     0.183 C 
BRANCH  40  41
ATOM     41  C14 UNK A   1     -27.238  -9.371  51.513  1.00  0.00     0.009 C 
BRANCH  41  42
ATOM     42  C16 UNK A   1     -27.875 -10.725  51.945  1.00  0.00     0.002 C 
ATOM     43  C21 UNK A   1     -28.791 -10.648  53.186  1.00  0.00     0.005 C 
ENDBRANCH  41  42
BRANCH  41  44
ATOM     44  C17 UNK A   1     -27.659  -8.909  50.087  1.00  0.00     0.002 C 
ATOM     45  C22 UNK A   1     -28.904  -9.624  49.515  1.00  0.00     0.005 C 
ENDBRANCH  41  44
ENDBRANCH  40  41
ENDBRANCH  39  40
ENDBRANCH  37  39
ENDBRANCH  35  37
ENDBRANCH  33  35
ENDBRANCH  24  33
ENDBRANCH  23  24
ENDBRANCH  22  23
ENDBRANCH   6  22
BRANCH   5  46
ATOM     46  O3  UNK A   1     -25.143  -1.624  53.770  1.00  0.00    -0.390 OA
ATOM     47  H8  UNK A   1     -25.682  -1.730  52.966  1.00  0.00     0.210 HD
ENDBRANCH   5  46
TORSDOF 17
ENDMDL
MODEL 6
REMARK VINA RESULT:      -7.1      4.571      8.149
REMARK  17 active torsions:
REMARK  status: ('A' for Active; 'I' for Inactive)
REMARK    1  A    between atoms: P1_1  and  O4_5 
REMARK    2  A    between atoms: P1_1  and  O5_6 
REMARK    3  A    between atoms: P1_1  and  N3_12 
REMARK    4  A    between atoms: O2_3  and  C2_17 
REMARK    5  A    between atoms: O3_4  and  C3_18 
REMARK    6  A    between atoms: O4_5  and  C6_21 
REMARK    7  A    between atoms: O5_6  and  C20_35 
REMARK    8  A    between atoms: O7_8  and  C15_30 
REMARK    9  A    between atoms: O7_8  and  C18_33 
REMARK   10  A    between atoms: N3_12  and  C12_27 
REMARK   11  A    between atoms: N6_15  and  C11_26 
REMARK   12  A    between atoms: C1_16  and  C5_20 
REMARK   13  A    between atoms: C4_19  and  C6_21 
REMARK   14  A    between atoms: C12_27  and  C18_33 
REMARK   15  A    between atoms: C14_29  and  C15_30 
REMARK   16  A    between atoms: C14_29  and  C16_31 
REMARK   17  A    between atoms: C14_29  and  C17_32 
ROOT
ATOM      1  O1  UNK A   1     -11.510  10.752  67.105  1.00  0.00    -0.347 OA
ATOM      2  N4  UNK A   1     -12.947  12.763  64.865  1.00  0.00    -0.193 NA
ATOM      3  C1  UNK A   1     -11.289  12.157  66.815  1.00  0.00     0.222 C 
ATOM      4  C2  UNK A   1      -9.791  12.201  66.378  1.00  0.00     0.205 C 
ATOM      5  C3  UNK A   1      -9.468  10.762  65.936  1.00  0.00     0.182 C 
ATOM      6  C4  UNK A   1     -10.339   9.929  66.892  1.00  0.00     0.180 C 
ATOM      7  C7  UNK A   1     -12.212  12.513  65.720  1.00  0.00     0.107 C 
ENDROOT
BRANCH   3   8
ATOM      8  C5  UNK A   1     -11.563  12.992  68.054  1.00  0.00     0.088 A 
ATOM      9  N1  UNK A   1     -11.374  14.327  68.328  1.00  0.00    -0.229 N 
ATOM     10  N2  UNK A   1     -10.898  15.260  67.448  1.00  0.00    -0.160 NA
ATOM     11  C9  UNK A   1     -11.665  14.581  69.646  1.00  0.00     0.104 A 
ATOM     12  C13 UNK A   1     -10.808  16.469  68.035  1.00  0.00     0.258 A 
ATOM     13  N5  UNK A   1     -11.137  16.742  69.303  1.00  0.00    -0.221 NA
ATOM     14  C11 UNK A   1     -11.554  15.834  70.170  1.00  0.00     0.151 A 
ATOM     15  C10 UNK A   1     -12.038  13.430  70.267  1.00  0.00     0.038 A 
ATOM     16  C8  UNK A   1     -11.975  12.414  69.314  1.00  0.00     0.034 A 
BRANCH  14  17
ATOM     17  N6  UNK A   1     -11.827  16.191  71.468  1.00  0.00    -0.382 N 
ATOM     18  H20 UNK A   1     -12.490  16.931  71.655  1.00  0.00     0.157 HD
ATOM     19  H21 UNK A   1     -11.519  15.589  72.221  1.00  0.00     0.157 HD
ENDBRANCH  14  17
ENDBRANCH   3   8
BRANCH   4  20
ATOM     20  O2  UNK A   1      -9.471  13.182  65.379  1.00  0.00    -0.388 OA
ATOM     21  H6  UNK A   1      -8.858  12.765  64.748  1.00  0.00     0.210 HD
ENDBRANCH   4  20
BRANCH   6  22
ATOM     22  C6  UNK A   1      -9.633   9.689  68.250  1.00  0.00     0.214 C 
BRANCH  22  23
ATOM     23  O4  UNK A   1      -9.159   8.334  68.297  1.00  0.00    -0.295 OA
BRANCH  23  24
ATOM     24  P1  UNK A   1      -9.991   7.145  69.017  1.00  0.00     0.436 P 
ATOM     25  O6  UNK A   1     -11.084   6.575  68.190  1.00  0.00    -0.234 OA
BRANCH  24  26
ATOM     26  O5  UNK A   1     -10.378   7.824  70.435  1.00  0.00    -0.256 OA
BRANCH  26  27
ATOM     27  C20 UNK A   1     -11.646   8.051  70.932  1.00  0.00     0.080 A 
ATOM     28  C23 UNK A   1     -12.610   7.028  71.075  1.00  0.00     0.037 A 
ATOM     29  C25 UNK A   1     -13.866   7.317  71.637  1.00  0.00     0.003 A 
ATOM     30  C27 UNK A   1     -14.161   8.620  72.071  1.00  0.00     0.000 A 
ATOM     31  C26 UNK A   1     -13.204   9.637  71.934  1.00  0.00     0.003 A 
ATOM     32  C24 UNK A   1     -11.954   9.352  71.360  1.00  0.00     0.037 A 
ENDBRANCH  26  27
ENDBRANCH  24  26
BRANCH  24  33
ATOM     33  N3  UNK A   1      -8.837   6.049  69.524  1.00  0.00    -0.314 N 
ATOM     34  H10 UNK A   1      -7.966   6.457  69.856  1.00  0.00     0.166 HD
BRANCH  33  35
ATOM     35  C12 UNK A   1      -8.572   4.778  68.829  1.00  0.00     0.183 C 
ATOM     36  C19 UNK A   1      -7.091   4.673  68.402  1.00  0.00     0.043 C 
BRANCH  35  37
ATOM     37  C18 UNK A   1      -8.968   3.584  69.715  1.00  0.00     0.281 C 
ATOM     38  O8  UNK A   1      -9.183   2.459  69.291  1.00  0.00    -0.263 OA
BRANCH  37  39
ATOM     39  O7  UNK A   1      -9.085   3.947  71.027  1.00  0.00    -0.319 OA
BRANCH  39  40
ATOM     40  C15 UNK A   1     -10.027   3.250  71.868  1.00  0.00     0.183 C 
BRANCH  40  41
ATOM     41  C14 UNK A   1     -10.542   4.199  72.981  1.00  0.00     0.009 C 
BRANCH  41  42
ATOM     42  C16 UNK A   1      -9.794   5.565  72.993  1.00  0.00     0.002 C 
ATOM     43  C21 UNK A   1     -10.233   6.540  74.107  1.00  0.00     0.005 C 
ENDBRANCH  41  42
BRANCH  41  44
ATOM     44  C17 UNK A   1     -10.520   3.463  74.353  1.00  0.00     0.002 C 
ATOM     45  C22 UNK A   1     -10.675   1.927  74.268  1.00  0.00     0.005 C 
ENDBRANCH  41  44
ENDBRANCH  40  41
ENDBRANCH  39  40
ENDBRANCH  37  39
ENDBRANCH  35  37
ENDBRANCH  33  35
ENDBRANCH  24  33
ENDBRANCH  23  24
ENDBRANCH  22  23
ENDBRANCH   6  22
BRANCH   5  46
ATOM     46  O3  UNK A   1      -9.852  10.517  64.579  1.00  0.00    -0.390 OA
ATOM     47  H8  UNK A   1      -9.192   9.926  64.176  1.00  0.00     0.210 HD
ENDBRANCH   5  46
TORSDOF 17
ENDMDL
MODEL 7
REMARK VINA RESULT:      -7.1     26.462     30.581
REMARK  17 active torsions:
REMARK  status: ('A' for Active; 'I' for Inactive)
REMARK    1  A    between atoms: P1_1  and  O4_5 
REMARK    2  A    between atoms: P1_1  and  O5_6 
REMARK    3  A    between atoms: P1_1  and  N3_12 
REMARK    4  A    between atoms: O2_3  and  C2_17 
REMARK    5  A    between atoms: O3_4  and  C3_18 
REMARK    6  A    between atoms: O4_5  and  C6_21 
REMARK    7  A    between atoms: O5_6  and  C20_35 
REMARK    8  A    between atoms: O7_8  and  C15_30 
REMARK    9  A    between atoms: O7_8  and  C18_33 
REMARK   10  A    between atoms: N3_12  and  C12_27 
REMARK   11  A    between atoms: N6_15  and  C11_26 
REMARK   12  A    between atoms: C1_16  and  C5_20 
REMARK   13  A    between atoms: C4_19  and  C6_21 
REMARK   14  A    between atoms: C12_27  and  C18_33 
REMARK   15  A    between atoms: C14_29  and  C15_30 
REMARK   16  A    between atoms: C14_29  and  C16_31 
REMARK   17  A    between atoms: C14_29  and  C17_32 
ROOT
ATOM      1  O1  UNK A   1     -27.112  -2.451  56.481  1.00  0.00    -0.347 OA
ATOM      2  N4  UNK A   1     -25.093   0.145  57.040  1.00  0.00    -0.193 NA
ATOM      3  C1  UNK A   1     -25.716  -2.405  56.874  1.00  0.00     0.222 C 
ATOM      4  C2  UNK A   1     -24.988  -3.136  55.704  1.00  0.00     0.205 C 
ATOM      5  C3  UNK A   1     -25.960  -3.036  54.515  1.00  0.00     0.182 C 
ATOM      6  C4  UNK A   1     -27.330  -3.110  55.211  1.00  0.00     0.180 C 
ATOM      7  C7  UNK A   1     -25.350  -0.979  56.971  1.00  0.00     0.107 C 
ENDROOT
BRANCH   3   8
ATOM      8  C5  UNK A   1     -25.530  -3.108  58.209  1.00  0.00     0.088 A 
ATOM      9  N1  UNK A   1     -25.392  -4.435  58.543  1.00  0.00    -0.229 N 
ATOM     10  N2  UNK A   1     -25.349  -5.477  57.657  1.00  0.00    -0.160 NA
ATOM     11  C9  UNK A   1     -25.375  -4.577  59.908  1.00  0.00     0.104 A 
ATOM     12  C13 UNK A   1     -25.233  -6.652  58.306  1.00  0.00     0.258 A 
ATOM     13  N5  UNK A   1     -25.164  -6.801  59.634  1.00  0.00    -0.221 NA
ATOM     14  C11 UNK A   1     -25.251  -5.800  60.495  1.00  0.00     0.151 A 
ATOM     15  C10 UNK A   1     -25.511  -3.360  60.500  1.00  0.00     0.038 A 
ATOM     16  C8  UNK A   1     -25.624  -2.419  59.477  1.00  0.00     0.034 A 
BRANCH  14  17
ATOM     17  N6  UNK A   1     -25.217  -6.045  61.846  1.00  0.00    -0.382 N 
ATOM     18  H20 UNK A   1     -24.434  -5.717  62.395  1.00  0.00     0.157 HD
ATOM     19  H21 UNK A   1     -26.054  -6.373  62.310  1.00  0.00     0.157 HD
ENDBRANCH  14  17
ENDBRANCH   3   8
BRANCH   4  20
ATOM     20  O2  UNK A   1     -23.672  -2.649  55.397  1.00  0.00    -0.388 OA
ATOM     21  H6  UNK A   1     -23.558  -2.705  54.432  1.00  0.00     0.210 HD
ENDBRANCH   4  20
BRANCH   6  22
ATOM     22  C6  UNK A   1     -27.766  -4.574  55.467  1.00  0.00     0.214 C 
BRANCH  22  23
ATOM     23  O4  UNK A   1     -28.118  -5.182  54.214  1.00  0.00    -0.295 OA
BRANCH  23  24
ATOM     24  P1  UNK A   1     -27.485  -6.589  53.720  1.00  0.00     0.436 P 
ATOM     25  O6  UNK A   1     -27.240  -6.670  52.258  1.00  0.00    -0.234 OA
BRANCH  24  26
ATOM     26  O5  UNK A   1     -28.500  -7.660  54.386  1.00  0.00    -0.256 OA
BRANCH  26  27
ATOM     27  C20 UNK A   1     -28.501  -9.029  54.209  1.00  0.00     0.080 A 
ATOM     28  C23 UNK A   1     -28.853  -9.647  52.988  1.00  0.00     0.037 A 
ATOM     29  C25 UNK A   1     -28.782 -11.044  52.859  1.00  0.00     0.003 A 
ATOM     30  C27 UNK A   1     -28.348 -11.831  53.939  1.00  0.00     0.000 A 
ATOM     31  C26 UNK A   1     -27.994 -11.221  55.152  1.00  0.00     0.003 A 
ATOM     32  C24 UNK A   1     -28.078  -9.825  55.286  1.00  0.00     0.037 A 
ENDBRANCH  26  27
ENDBRANCH  24  26
BRANCH  24  33
ATOM     33  N3  UNK A   1     -26.140  -6.825  54.681  1.00  0.00    -0.314 N 
ATOM     34  H10 UNK A   1     -25.965  -6.097  55.371  1.00  0.00     0.166 HD
BRANCH  33  35
ATOM     35  C12 UNK A   1     -24.865  -7.358  54.168  1.00  0.00     0.183 C 
ATOM     36  C19 UNK A   1     -23.681  -6.448  54.562  1.00  0.00     0.043 C 
BRANCH  35  37
ATOM     37  C18 UNK A   1     -24.639  -8.794  54.671  1.00  0.00     0.281 C 
ATOM     38  O8  UNK A   1     -24.619  -9.110  55.851  1.00  0.00    -0.263 OA
BRANCH  37  39
ATOM     39  O7  UNK A   1     -24.428  -9.663  53.637  1.00  0.00    -0.319 OA
BRANCH  39  40
ATOM     40  C15 UNK A   1     -25.014  -9.378  52.350  1.00  0.00     0.183 C 
BRANCH  40  41
ATOM     41  C14 UNK A   1     -25.561 -10.685  51.720  1.00  0.00     0.009 C 
BRANCH  41  42
ATOM     42  C16 UNK A   1     -24.653 -11.915  52.017  1.00  0.00     0.002 C 
ATOM     43  C21 UNK A   1     -25.037 -13.207  51.264  1.00  0.00     0.005 C 
ENDBRANCH  41  42
BRANCH  41  44
ATOM     44  C17 UNK A   1     -25.836 -10.464  50.204  1.00  0.00     0.002 C 
ATOM     45  C22 UNK A   1     -26.625  -9.177  49.868  1.00  0.00     0.005 C 
ENDBRANCH  41  44
ENDBRANCH  40  41
ENDBRANCH  39  40
ENDBRANCH  37  39
ENDBRANCH  35  37
ENDBRANCH  33  35
ENDBRANCH  24  33
ENDBRANCH  23  24
ENDBRANCH  22  23
ENDBRANCH   6  22
BRANCH   5  46
ATOM     46  O3  UNK A   1     -25.829  -1.794  53.815  1.00  0.00    -0.390 OA
ATOM     47  H8  UNK A   1     -25.308  -1.185  54.368  1.00  0.00     0.210 HD
ENDBRANCH   5  46
TORSDOF 17
ENDMDL
MODEL 8
REMARK VINA RESULT:      -7.1     25.565     29.573
REMARK  17 active torsions:
REMARK  status: ('A' for Active; 'I' for Inactive)
REMARK    1  A    between atoms: P1_1  and  O4_5 
REMARK    2  A    between atoms: P1_1  and  O5_6 
REMARK    3  A    between atoms: P1_1  and  N3_12 
REMARK    4  A    between atoms: O2_3  and  C2_17 
REMARK    5  A    between atoms: O3_4  and  C3_18 
REMARK    6  A    between atoms: O4_5  and  C6_21 
REMARK    7  A    between atoms: O5_6  and  C20_35 
REMARK    8  A    between atoms: O7_8  and  C15_30 
REMARK    9  A    between atoms: O7_8  and  C18_33 
REMARK   10  A    between atoms: N3_12  and  C12_27 
REMARK   11  A    between atoms: N6_15  and  C11_26 
REMARK   12  A    between atoms: C1_16  and  C5_20 
REMARK   13  A    between atoms: C4_19  and  C6_21 
REMARK   14  A    between atoms: C12_27  and  C18_33 
REMARK   15  A    between atoms: C14_29  and  C15_30 
REMARK   16  A    between atoms: C14_29  and  C16_31 
REMARK   17  A    between atoms: C14_29  and  C17_32 
ROOT
ATOM      1  O1  UNK A   1     -26.807  -2.287  56.737  1.00  0.00    -0.347 OA
ATOM      2  N4  UNK A   1     -24.956   0.477  56.984  1.00  0.00    -0.193 NA
ATOM      3  C1  UNK A   1     -25.367  -2.112  56.770  1.00  0.00     0.222 C 
ATOM      4  C2  UNK A   1     -24.902  -2.692  55.398  1.00  0.00     0.205 C 
ATOM      5  C3  UNK A   1     -26.153  -2.632  54.503  1.00  0.00     0.182 C 
ATOM      6  C4  UNK A   1     -27.284  -2.892  55.512  1.00  0.00     0.180 C 
ATOM      7  C7  UNK A   1     -25.119  -0.662  56.889  1.00  0.00     0.107 C 
ENDROOT
BRANCH   3   8
ATOM      8  C5  UNK A   1     -24.780  -2.865  57.953  1.00  0.00     0.088 A 
ATOM      9  N1  UNK A   1     -25.356  -3.410  59.077  1.00  0.00    -0.229 N 
ATOM     10  N2  UNK A   1     -26.694  -3.423  59.359  1.00  0.00    -0.160 NA
ATOM     11  C9  UNK A   1     -24.381  -3.884  59.920  1.00  0.00     0.104 A 
ATOM     12  C13 UNK A   1     -26.928  -4.010  60.549  1.00  0.00     0.258 A 
ATOM     13  N5  UNK A   1     -25.992  -4.522  61.357  1.00  0.00    -0.221 NA
ATOM     14  C11 UNK A   1     -24.694  -4.471  61.109  1.00  0.00     0.151 A 
ATOM     15  C10 UNK A   1     -23.154  -3.654  59.383  1.00  0.00     0.038 A 
ATOM     16  C8  UNK A   1     -23.357  -3.008  58.163  1.00  0.00     0.034 A 
BRANCH  14  17
ATOM     17  N6  UNK A   1     -23.796  -4.981  62.016  1.00  0.00    -0.382 N 
ATOM     18  H20 UNK A   1     -23.238  -4.351  62.577  1.00  0.00     0.157 HD
ATOM     19  H21 UNK A   1     -23.840  -5.963  62.255  1.00  0.00     0.157 HD
ENDBRANCH  14  17
ENDBRANCH   3   8
BRANCH   4  20
ATOM     20  O2  UNK A   1     -23.759  -2.049  54.813  1.00  0.00    -0.388 OA
ATOM     21  H6  UNK A   1     -22.966  -2.426  55.233  1.00  0.00     0.210 HD
ENDBRANCH   4  20
BRANCH   6  22
ATOM     22  C6  UNK A   1     -27.506  -4.408  55.748  1.00  0.00     0.214 C 
BRANCH  22  23
ATOM     23  O4  UNK A   1     -28.034  -4.994  54.548  1.00  0.00    -0.295 OA
BRANCH  23  24
ATOM     24  P1  UNK A   1     -27.430  -6.352  53.903  1.00  0.00     0.436 P 
ATOM     25  O6  UNK A   1     -26.951  -6.205  52.505  1.00  0.00    -0.234 OA
BRANCH  24  26
ATOM     26  O5  UNK A   1     -28.616  -7.414  54.197  1.00  0.00    -0.256 OA
BRANCH  26  27
ATOM     27  C20 UNK A   1     -28.573  -8.782  54.021  1.00  0.00     0.080 A 
ATOM     28  C23 UNK A   1     -28.619  -9.698  55.095  1.00  0.00     0.037 A 
ATOM     29  C25 UNK A   1     -28.623 -11.081  54.842  1.00  0.00     0.003 A 
ATOM     30  C27 UNK A   1     -28.596 -11.557  53.521  1.00  0.00     0.000 A 
ATOM     31  C26 UNK A   1     -28.553 -10.649  52.451  1.00  0.00     0.003 A 
ATOM     32  C24 UNK A   1     -28.535  -9.267  52.703  1.00  0.00     0.037 A 
ENDBRANCH  26  27
ENDBRANCH  24  26
BRANCH  24  33
ATOM     33  N3  UNK A   1     -26.284  -6.883  54.995  1.00  0.00    -0.314 N 
ATOM     34  H10 UNK A   1     -26.123  -6.269  55.789  1.00  0.00     0.166 HD
BRANCH  33  35
ATOM     35  C12 UNK A   1     -25.026  -7.536  54.592  1.00  0.00     0.183 C 
ATOM     36  C19 UNK A   1     -23.872  -6.514  54.499  1.00  0.00     0.043 C 
BRANCH  35  37
ATOM     37  C18 UNK A   1     -24.670  -8.672  55.566  1.00  0.00     0.281 C 
ATOM     38  O8  UNK A   1     -23.788  -9.493  55.367  1.00  0.00    -0.263 OA
BRANCH  37  39
ATOM     39  O7  UNK A   1     -25.485  -8.669  56.664  1.00  0.00    -0.319 OA
BRANCH  39  40
ATOM     40  C15 UNK A   1     -25.736  -9.910  57.356  1.00  0.00     0.183 C 
BRANCH  40  41
ATOM     41  C14 UNK A   1     -26.942  -9.741  58.317  1.00  0.00     0.009 C 
BRANCH  41  42
ATOM     42  C16 UNK A   1     -26.533  -9.109  59.680  1.00  0.00     0.002 C 
ATOM     43  C21 UNK A   1     -27.017  -7.658  59.897  1.00  0.00     0.005 C 
ENDBRANCH  41  42
BRANCH  41  44
ATOM     44  C17 UNK A   1     -27.696 -11.096  58.458  1.00  0.00     0.002 C 
ATOM     45  C22 UNK A   1     -28.131 -11.449  59.898  1.00  0.00     0.005 C 
ENDBRANCH  41  44
ENDBRANCH  40  41
ENDBRANCH  39  40
ENDBRANCH  37  39
ENDBRANCH  35  37
ENDBRANCH  33  35
ENDBRANCH  24  33
ENDBRANCH  23  24
ENDBRANCH  22  23
ENDBRANCH   6  22
BRANCH   5  46
ATOM     46  O3  UNK A   1     -26.319  -1.345  53.897  1.00  0.00    -0.390 OA
ATOM     47  H8  UNK A   1     -25.474  -1.088  53.488  1.00  0.00     0.210 HD
ENDBRANCH   5  46
TORSDOF 17
ENDMDL
MODEL 9
REMARK VINA RESULT:      -7.0      2.412      5.269
REMARK  17 active torsions:
REMARK  status: ('A' for Active; 'I' for Inactive)
REMARK    1  A    between atoms: P1_1  and  O4_5 
REMARK    2  A    between atoms: P1_1  and  O5_6 
REMARK    3  A    between atoms: P1_1  and  N3_12 
REMARK    4  A    between atoms: O2_3  and  C2_17 
REMARK    5  A    between atoms: O3_4  and  C3_18 
REMARK    6  A    between atoms: O4_5  and  C6_21 
REMARK    7  A    between atoms: O5_6  and  C20_35 
REMARK    8  A    between atoms: O7_8  and  C15_30 
REMARK    9  A    between atoms: O7_8  and  C18_33 
REMARK   10  A    between atoms: N3_12  and  C12_27 
REMARK   11  A    between atoms: N6_15  and  C11_26 
REMARK   12  A    between atoms: C1_16  and  C5_20 
REMARK   13  A    between atoms: C4_19  and  C6_21 
REMARK   14  A    between atoms: C12_27  and  C18_33 
REMARK   15  A    between atoms: C14_29  and  C15_30 
REMARK   16  A    between atoms: C14_29  and  C16_31 
REMARK   17  A    between atoms: C14_29  and  C17_32 
ROOT
ATOM      1  O1  UNK A   1      -6.607  14.354  67.158  1.00  0.00    -0.347 OA
ATOM      2  N4  UNK A   1      -3.315  14.201  67.675  1.00  0.00    -0.193 NA
ATOM      3  C1  UNK A   1      -5.750  15.127  68.038  1.00  0.00     0.222 C 
ATOM      4  C2  UNK A   1      -6.317  14.813  69.458  1.00  0.00     0.205 C 
ATOM      5  C3  UNK A   1      -7.072  13.482  69.293  1.00  0.00     0.182 C 
ATOM      6  C4  UNK A   1      -7.621  13.598  67.861  1.00  0.00     0.180 C 
ATOM      7  C7  UNK A   1      -4.378  14.618  67.847  1.00  0.00     0.107 C 
ENDROOT
BRANCH   3   8
ATOM      8  C5  UNK A   1      -5.839  16.602  67.684  1.00  0.00     0.088 A 
ATOM      9  N1  UNK A   1      -5.472  17.739  68.366  1.00  0.00    -0.229 N 
ATOM     10  N2  UNK A   1      -4.860  17.770  69.589  1.00  0.00    -0.160 NA
ATOM     11  C9  UNK A   1      -5.874  18.853  67.672  1.00  0.00     0.104 A 
ATOM     12  C13 UNK A   1      -4.657  19.040  69.991  1.00  0.00     0.258 A 
ATOM     13  N5  UNK A   1      -4.998  20.134  69.301  1.00  0.00    -0.221 NA
ATOM     14  C11 UNK A   1      -5.631  20.109  68.140  1.00  0.00     0.151 A 
ATOM     15  C10 UNK A   1      -6.518  18.480  66.534  1.00  0.00     0.038 A 
ATOM     16  C8  UNK A   1      -6.531  17.086  66.510  1.00  0.00     0.034 A 
BRANCH  14  17
ATOM     17  N6  UNK A   1      -5.984  21.283  67.519  1.00  0.00    -0.382 N 
ATOM     18  H20 UNK A   1      -5.271  21.860  67.096  1.00  0.00     0.157 HD
ATOM     19  H21 UNK A   1      -6.960  21.460  67.320  1.00  0.00     0.157 HD
ENDBRANCH  14  17
ENDBRANCH   3   8
BRANCH   4  20
ATOM     20  O2  UNK A   1      -5.345  14.782  70.515  1.00  0.00    -0.388 OA
ATOM     21  H6  UNK A   1      -4.893  13.921  70.470  1.00  0.00     0.210 HD
ENDBRANCH   4  20
BRANCH   6  22
ATOM     22  C6  UNK A   1      -8.958  14.381  67.820  1.00  0.00     0.214 C 
BRANCH  22  23
ATOM     23  O4  UNK A   1      -9.314  14.623  66.450  1.00  0.00    -0.295 OA
BRANCH  23  24
ATOM     24  P1  UNK A   1     -10.694  15.359  66.026  1.00  0.00     0.436 P 
ATOM     25  O6  UNK A   1     -10.686  15.931  64.656  1.00  0.00    -0.234 OA
BRANCH  24  26
ATOM     26  O5  UNK A   1     -10.929  16.364  67.273  1.00  0.00    -0.256 OA
BRANCH  26  27
ATOM     27  C20 UNK A   1     -10.478  17.662  67.394  1.00  0.00     0.080 A 
ATOM     28  C23 UNK A   1      -9.912  18.173  68.582  1.00  0.00     0.037 A 
ATOM     29  C25 UNK A   1      -9.424  19.491  68.621  1.00  0.00     0.003 A 
ATOM     30  C27 UNK A   1      -9.484  20.300  67.475  1.00  0.00     0.000 A 
ATOM     31  C26 UNK A   1     -10.043  19.794  66.291  1.00  0.00     0.003 A 
ATOM     32  C24 UNK A   1     -10.544  18.482  66.255  1.00  0.00     0.037 A 
ENDBRANCH  26  27
ENDBRANCH  24  26
BRANCH  24  33
ATOM     33  N3  UNK A   1     -11.896  14.239  66.323  1.00  0.00    -0.314 N 
ATOM     34  H10 UNK A   1     -12.168  14.140  67.298  1.00  0.00     0.166 HD
BRANCH  33  35
ATOM     35  C12 UNK A   1     -11.971  12.935  65.639  1.00  0.00     0.183 C 
ATOM     36  C19 UNK A   1     -11.340  13.006  64.231  1.00  0.00     0.043 C 
BRANCH  35  37
ATOM     37  C18 UNK A   1     -11.295  11.842  66.484  1.00  0.00     0.281 C 
ATOM     38  O8  UNK A   1     -10.259  11.277  66.169  1.00  0.00    -0.263 OA
BRANCH  37  39
ATOM     39  O7  UNK A   1     -12.015  11.558  67.610  1.00  0.00    -0.319 OA
BRANCH  39  40
ATOM     40  C15 UNK A   1     -11.409  11.768  68.902  1.00  0.00     0.183 C 
BRANCH  40  41
ATOM     41  C14 UNK A   1     -11.682  10.545  69.817  1.00  0.00     0.009 C 
BRANCH  41  42
ATOM     42  C16 UNK A   1     -12.559  10.908  71.052  1.00  0.00     0.002 C 
ATOM     43  C21 UNK A   1     -13.317   9.721  71.685  1.00  0.00     0.005 C 
ENDBRANCH  41  42
BRANCH  41  44
ATOM     44  C17 UNK A   1     -10.337   9.854  70.187  1.00  0.00     0.002 C 
ATOM     45  C22 UNK A   1      -9.167  10.152  69.221  1.00  0.00     0.005 C 
ENDBRANCH  41  44
ENDBRANCH  40  41
ENDBRANCH  39  40
ENDBRANCH  37  39
ENDBRANCH  35  37
ENDBRANCH  33  35
ENDBRANCH  24  33
ENDBRANCH  23  24
ENDBRANCH  22  23
ENDBRANCH   6  22
BRANCH   5  46
ATOM     46  O3  UNK A   1      -6.200  12.352  69.397  1.00  0.00    -0.390 OA
ATOM     47  H8  UNK A   1      -5.457  12.481  68.781  1.00  0.00     0.210 HD
ENDBRANCH   5  46
TORSDOF 17
ENDMDL
