REMARK  17 active torsions:
REMARK  status: ('A' for Active; 'I' for Inactive)
REMARK    1  A    between atoms: P1_1  and  O4_5 
REMARK    2  A    between atoms: P1_1  and  O5_6 
REMARK    3  A    between atoms: P1_1  and  N3_12 
REMARK    4  A    between atoms: O2_3  and  C2_17 
REMARK    5  A    between atoms: O3_4  and  C3_18 
REMARK    6  A    between atoms: O4_5  and  C6_21 
REMARK    7  A    between atoms: O5_6  and  C20_35 
REMARK    8  A    between atoms: O7_8  and  C15_30 
REMARK    9  A    between atoms: O7_8  and  C18_33 
REMARK   10  A    between atoms: N3_12  and  C12_27 
REMARK   11  A    between atoms: N6_15  and  C11_26 
REMARK   12  A    between atoms: C1_16  and  C5_20 
REMARK   13  A    between atoms: C4_19  and  C6_21 
REMARK   14  A    between atoms: C12_27  and  C18_33 
REMARK   15  A    between atoms: C14_29  and  C15_30 
REMARK   16  A    between atoms: C14_29  and  C16_31 
REMARK   17  A    between atoms: C14_29  and  C17_32 
ROOT
ATOM      1  O1  UNK A   1      31.734   6.622  73.627  1.00  0.00    -0.347 OA
ATOM      2  N4  UNK A   1      31.644   7.248  70.352  1.00  0.00    -0.193 NA
ATOM      3  C1  UNK A   1      30.709   6.344  72.638  1.00  0.00     0.222 C 
ATOM      4  C2  UNK A   1      29.480   7.153  73.157  1.00  0.00     0.205 C 
ATOM      5  C3  UNK A   1      30.081   8.236  74.071  1.00  0.00     0.182 C 
ATOM      6  C4  UNK A   1      31.290   7.508  74.682  1.00  0.00     0.180 C 
ATOM      7  C7  UNK A   1      31.219   6.847  71.348  1.00  0.00     0.107 C 
ENDROOT
BRANCH   3   8
ATOM      8  C5  UNK A   1      30.442   4.849  72.574  1.00  0.00     0.088 A 
ATOM      9  N1  UNK A   1      31.246   3.757  72.803  1.00  0.00    -0.229 N 
ATOM     10  N2  UNK A   1      32.551   3.802  73.212  1.00  0.00    -0.160 NA
ATOM     11  C9  UNK A   1      30.570   2.603  72.493  1.00  0.00     0.104 A 
ATOM     12  C13 UNK A   1      33.062   2.560  73.320  1.00  0.00     0.258 A 
ATOM     13  N5  UNK A   1      32.399   1.425  73.070  1.00  0.00    -0.221 NA
ATOM     14  C11 UNK A   1      31.152   1.379  72.631  1.00  0.00     0.151 A 
ATOM     15  C10 UNK A   1      29.322   2.905  72.046  1.00  0.00     0.038 A 
ATOM     16  C8  UNK A   1      29.206   4.295  72.068  1.00  0.00     0.034 A 
BRANCH  14  17
ATOM     17  N6  UNK A   1      30.560   0.170  72.355  1.00  0.00    -0.382 N 
ATOM     18  H20 UNK A   1      29.647   0.147  71.922  1.00  0.00     0.157 HD
ATOM     19  H21 UNK A   1      31.116  -0.674  72.404  1.00  0.00     0.157 HD
ENDBRANCH  14  17
ENDBRANCH   3   8
BRANCH   4  20
ATOM     20  O2  UNK A   1      28.621   7.689  72.138  1.00  0.00    -0.388 OA
ATOM     21  H6  UNK A   1      28.121   8.423  72.536  1.00  0.00     0.210 HD
ENDBRANCH   4  20
BRANCH   6  22
ATOM     22  C6  UNK A   1      30.888   6.664  75.918  1.00  0.00     0.214 C 
BRANCH  22  23
ATOM     23  O4  UNK A   1      32.034   5.928  76.373  1.00  0.00    -0.295 OA
BRANCH  23  24
ATOM     24  P1  UNK A   1      31.908   4.509  77.145  1.00  0.00     0.436 P 
ATOM     25  O6  UNK A   1      33.204   3.826  77.385  1.00  0.00    -0.234 OA
BRANCH  24  26
ATOM     26  O5  UNK A   1      30.794   3.745  76.252  1.00  0.00    -0.256 OA
BRANCH  26  27
ATOM     27  C20 UNK A   1      30.241   2.504  76.493  1.00  0.00     0.080 A 
ATOM     28  C23 UNK A   1      30.799   1.576  77.400  1.00  0.00     0.037 A 
ATOM     29  C25 UNK A   1      30.156   0.349  77.638  1.00  0.00     0.003 A 
ATOM     30  C27 UNK A   1      28.949   0.047  76.986  1.00  0.00     0.000 A 
ATOM     31  C26 UNK A   1      28.390   0.968  76.087  1.00  0.00     0.003 A 
ATOM     32  C24 UNK A   1      29.039   2.189  75.838  1.00  0.00     0.037 A 
ENDBRANCH  26  27
ENDBRANCH  24  26
BRANCH  24  33
ATOM     33  N3  UNK A   1      31.011   4.835  78.515  1.00  0.00    -0.314 N 
ATOM     34  H10 UNK A   1      30.092   5.238  78.348  1.00  0.00     0.166 HD
BRANCH  33  35
ATOM     35  C12 UNK A   1      31.595   5.392  79.748  1.00  0.00     0.183 C 
ATOM     36  C19 UNK A   1      31.674   6.933  79.682  1.00  0.00     0.043 C 
BRANCH  35  37
ATOM     37  C18 UNK A   1      30.790   4.941  80.979  1.00  0.00     0.281 C 
ATOM     38  O8  UNK A   1      29.694   4.405  80.921  1.00  0.00    -0.263 OA
BRANCH  37  39
ATOM     39  O7  UNK A   1      31.437   5.246  82.144  1.00  0.00    -0.319 OA
BRANCH  39  40
ATOM     40  C15 UNK A   1      30.840   4.862  83.400  1.00  0.00     0.183 C 
BRANCH  40  41
ATOM     41  C14 UNK A   1      31.695   5.403  84.576  1.00  0.00     0.009 C 
BRANCH  41  42
ATOM     42  C16 UNK A   1      33.190   4.979  84.470  1.00  0.00     0.002 C 
ATOM     43  C21 UNK A   1      33.441   3.456  84.522  1.00  0.00     0.005 C 
ENDBRANCH  41  42
BRANCH  41  44
ATOM     44  C17 UNK A   1      31.031   5.018  85.930  1.00  0.00     0.002 C 
ATOM     45  C22 UNK A   1      31.744   5.574  87.184  1.00  0.00     0.005 C 
ENDBRANCH  41  44
ENDBRANCH  40  41
ENDBRANCH  39  40
ENDBRANCH  37  39
ENDBRANCH  35  37
ENDBRANCH  33  35
ENDBRANCH  24  33
ENDBRANCH  23  24
ENDBRANCH  22  23
ENDBRANCH   6  22
BRANCH   5  46
ATOM     46  O3  UNK A   1      30.517   9.382  73.332  1.00  0.00    -0.390 OA
ATOM     47  H8  UNK A   1      31.176   9.859  73.867  1.00  0.00     0.210 HD
ENDBRANCH   5  46
TORSDOF 17
